<?xml version="1.0" encoding="UTF-8"?>

<!-- generated on 2023-12-19 02:37:30.763905 by osmWebWizard.py UNKNOWN
<configuration>
    <net-file value="/opt/homebrew/Cellar/sumo/1.19.0/share/sumo/tools/2023-12-19-02-37-26/osm.net.xml.gz"/>
    <output-trip-file value="/opt/homebrew/Cellar/sumo/1.19.0/share/sumo/tools/2023-12-19-02-37-26/osm.passenger.trips.xml"/>
    <route-file value="/opt/homebrew/Cellar/sumo/1.19.0/share/sumo/tools/2023-12-19-02-37-26/osm.passenger.rou.xml"/>
    <prefix value="veh"/>
    <trip-attributes value="departLane=&quot;best&quot;"/>
    <fringe-start-attributes value="departSpeed=&quot;max&quot;"/>
    <vehicle-class value="passenger"/>
    <lanes value="True"/>
    <fringe-factor value="10"/>
    <allow-fringe.min-length value="1000.0"/>
    <via-edge-types value="highway.motorway,highway.motorway_link,highway.trunk_link,highway.primary_link,highway.secondary_link,highway.tertiary_link"/>
    <min-distance value="300.0"/>
    <min-distance.fringe value="10.0"/>
    <remove-loops value="True"/>
    <validate value="True"/>
    <end value="800.0"/>
    <insertion-density value="30.0"/>
</configuration>
-->

<!-- generated on 2023-12-19 02:37:30 by Eclipse SUMO duarouter Version 1.19.0
<configuration xmlns:xsi="http://www.w3.org/2001/XMLSchema-instance" xsi:noNamespaceSchemaLocation="http://sumo.dlr.de/xsd/duarouterConfiguration.xsd">

    <input>
        <net-file value="/opt/homebrew/Cellar/sumo/1.19.0/share/sumo/tools/2023-12-19-02-37-26/osm.net.xml.gz"/>
        <route-files value="/opt/homebrew/Cellar/sumo/1.19.0/share/sumo/tools/2023-12-19-02-37-26/osm.passenger.trips.xml"/>
    </input>

    <output>
        <output-file value="/opt/homebrew/Cellar/sumo/1.19.0/share/sumo/tools/2023-12-19-02-37-26/osm.passenger.trips.xml.tmp"/>
        <alternatives-output value="NUL"/>
        <write-trips value="true"/>
    </output>

    <processing>
        <remove-loops value="true"/>
    </processing>

    <time>
        <begin value="0.0"/>
        <end value="800.0"/>
    </time>

    <report>
        <no-warnings value="true"/>
        <ignore-errors value="true"/>
        <no-step-log value="true"/>
    </report>

</configuration>
-->

<routes xmlns:xsi="http://www.w3.org/2001/XMLSchema-instance" xsi:noNamespaceSchemaLocation="http://sumo.dlr.de/xsd/routes_file.xsd">
    <vType id="veh_passenger" vClass="passenger"/>
    <trip id="veh0" type="veh_passenger" depart="0.00" departLane="best" from="37915614#2" to="-132400957#2"/>
    <trip id="veh1" type="veh_passenger" depart="3.98" departLane="best" departSpeed="max" from="45050329#0" to="37136833#3"/>
    <trip id="veh2" type="veh_passenger" depart="7.96" departLane="best" departSpeed="max" from="658342131#0" to="-45050329#4"/>
    <trip id="veh3" type="veh_passenger" depart="11.94" departLane="best" departSpeed="max" from="304618246#0" to="-17213698#1"/>
    <trip id="veh4" type="veh_passenger" depart="15.92" departLane="best" from="17205224#2" to="306461344#2"/>
    <trip id="veh5" type="veh_passenger" depart="19.91" departLane="best" departSpeed="max" from="-17221307#1" to="132400907#1"/>
    <trip id="veh7" type="veh_passenger" depart="27.87" departLane="best" from="17205224#2" to="37052092#4"/>
    <trip id="veh8" type="veh_passenger" depart="31.85" departLane="best" departSpeed="max" from="45204087#0" to="1057713529#3"/>
    <trip id="veh9" type="veh_passenger" depart="35.83" departLane="best" from="45090429#5" to="37138017#1"/>
    <trip id="veh10" type="veh_passenger" depart="39.81" departLane="best" departSpeed="max" from="249305447#0" to="1057713529#3"/>
    <trip id="veh12" type="veh_passenger" depart="47.77" departLane="best" from="-45050329#7" to="-45050329#4"/>
    <trip id="veh13" type="veh_passenger" depart="51.76" departLane="best" departSpeed="max" from="518910434#0-AddedOnRampEdge" to="37054458#1"/>
    <trip id="veh14" type="veh_passenger" depart="55.74" departLane="best" departSpeed="max" from="45204087#0" to="37915612#1"/>
    <trip id="veh15" type="veh_passenger" depart="59.72" departLane="best" departSpeed="max" from="37051824#0" to="770925915#5"/>
    <trip id="veh17" type="veh_passenger" depart="67.68" departLane="best" departSpeed="max" from="518910434#0-AddedOnRampEdge" to="37051419#5"/>
    <trip id="veh18" type="veh_passenger" depart="71.66" departLane="best" from="-518910430#1" to="17205735#2"/>
    <trip id="veh20" type="veh_passenger" depart="79.62" departLane="best" from="292256998#1" to="132400922#1"/>
    <trip id="veh21" type="veh_passenger" depart="83.61" departLane="best" departSpeed="max" from="39275723#0" to="37054458#3"/>
    <trip id="veh22" type="veh_passenger" depart="87.59" departLane="best" departSpeed="max" from="132400957#0" to="37915612#1"/>
    <trip id="veh23" type="veh_passenger" depart="91.57" departLane="best" from="1057713533#1" to="17221307#1"/>
    <trip id="veh24" type="veh_passenger" depart="95.55" departLane="best" departSpeed="max" from="88617178#0" to="37114305#4"/>
    <trip id="veh25" type="veh_passenger" depart="99.53" departLane="best" from="37052092#0" to="37136833#3"/>
    <trip id="veh26" type="veh_passenger" depart="103.51" departLane="best" from="17205224#6" to="-17213698#2"/>
    <trip id="veh27" type="veh_passenger" depart="107.49" departLane="best" departSpeed="max" from="249305447#0" to="17205224#5"/>
    <trip id="veh28" type="veh_passenger" depart="111.47" departLane="best" departSpeed="max" from="39275723#0" to="17227246#1"/>
    <trip id="veh29" type="veh_passenger" depart="115.46" departLane="best" from="658526864#1" to="294561112#19"/>
    <trip id="veh30" type="veh_passenger" depart="119.44" departLane="best" from="-37052092#3" to="17205224#3"/>
    <trip id="veh31" type="veh_passenger" depart="123.42" departLane="best" from="37114303#2" to="658527085#2"/>
    <trip id="veh32" type="veh_passenger" depart="127.40" departLane="best" from="294561112#16" to="168728401#1"/>
    <trip id="veh33" type="veh_passenger" depart="131.38" departLane="best" from="45050329#7" to="-292256999#2"/>
    <trip id="veh34" type="veh_passenger" depart="135.36" departLane="best" from="-770925915#2" to="37114303#4"/>
    <trip id="veh35" type="veh_passenger" depart="139.34" departLane="best" departSpeed="max" from="45090429#0" to="25593473#0"/>
    <trip id="veh36" type="veh_passenger" depart="143.32" departLane="best" departSpeed="max" from="-37052092#5" to="17221307#1"/>
    <trip id="veh38" type="veh_passenger" depart="151.29" departLane="best" from="-770925915#2" to="658526864#1"/>
    <trip id="veh39" type="veh_passenger" depart="155.27" departLane="best" from="132400957#2" to="37915612#1"/>
    <trip id="veh41" type="veh_passenger" depart="163.23" departLane="best" from="17208008#1" to="37114305#5"/>
    <trip id="veh42" type="veh_passenger" depart="167.21" departLane="best" from="-770925915#2" to="294443279#3"/>
    <trip id="veh43" type="veh_passenger" depart="171.19" departLane="best" departSpeed="max" from="304618246#0" to="770925908"/>
    <trip id="veh46" type="veh_passenger" depart="183.14" departLane="best" from="658342131#2" to="658526864#7"/>
    <trip id="veh48" type="veh_passenger" depart="191.10" departLane="best" from="37114312#1" to="1057713529#2"/>
    <trip id="veh51" type="veh_passenger" depart="203.04" departLane="best" from="-1057713529#0" to="17213444#1"/>
    <trip id="veh52" type="veh_passenger" depart="207.02" departLane="best" from="-17213698#3" to="770925905#3"/>
    <trip id="veh53" type="veh_passenger" depart="211.00" departLane="best" from="657760073" to="518910425#2"/>
    <trip id="veh54" type="veh_passenger" depart="214.99" departLane="best" from="249270974#1" to="37113369#1"/>
    <trip id="veh55" type="veh_passenger" depart="218.97" departLane="best" from="657760073" to="770925905#3"/>
    <trip id="veh56" type="veh_passenger" depart="222.95" departLane="best" from="45050329#15" to="294561112#2"/>
    <trip id="veh57" type="veh_passenger" depart="226.93" departLane="best" departSpeed="max" from="-37052092#5" to="45050329#10"/>
    <trip id="veh58" type="veh_passenger" depart="230.91" departLane="best" from="17208008#0" to="658526864#7"/>
    <trip id="veh59" type="veh_passenger" depart="234.89" departLane="best" departSpeed="max" from="304618246#0" to="-132400957#2"/>
    <trip id="veh60" type="veh_passenger" depart="238.87" departLane="best" departSpeed="max" from="37051824#0" to="37915612#1"/>
    <trip id="veh61" type="veh_passenger" depart="242.85" departLane="best" from="17205222#4" to="17213444#1"/>
    <trip id="veh62" type="veh_passenger" depart="246.84" departLane="best" from="88617178#3" to="37114312#1"/>
    <trip id="veh63" type="veh_passenger" depart="250.82" departLane="best" departSpeed="max" from="-770925915#6" to="168728401#1"/>
    <trip id="veh64" type="veh_passenger" depart="254.80" departLane="best" departSpeed="max" from="249305447#0" to="37052092#3"/>
    <trip id="veh65" type="veh_passenger" depart="258.78" departLane="best" from="17205224#6" to="168728401#1"/>
    <trip id="veh66" type="veh_passenger" depart="262.76" departLane="best" from="37113369#1" to="37114303#7"/>
    <trip id="veh67" type="veh_passenger" depart="266.74" departLane="best" departSpeed="max" from="518910434#0-AddedOnRampEdge" to="45050329#14"/>
    <trip id="veh68" type="veh_passenger" depart="270.72" departLane="best" from="17205735#2" to="37136833#1"/>
    <trip id="veh69" type="veh_passenger" depart="274.70" departLane="best" from="17205224#0" to="-88617178#0"/>
    <trip id="veh70" type="veh_passenger" depart="278.68" departLane="best" from="658526876#3" to="37051419#5"/>
    <trip id="veh72" type="veh_passenger" depart="286.65" departLane="best" departSpeed="max" from="45204087#0" to="132400907#1"/>
    <trip id="veh73" type="veh_passenger" depart="290.63" departLane="best" from="45204238#1" to="294443279#1"/>
    <trip id="veh74" type="veh_passenger" depart="294.61" departLane="best" departSpeed="max" from="304618246#0" to="294561112#19"/>
    <trip id="veh75" type="veh_passenger" depart="298.59" departLane="best" departSpeed="max" from="45050329#0" to="37136833#3"/>
    <trip id="veh76" type="veh_passenger" depart="302.57" departLane="best" departSpeed="max" from="88617178#0" to="-45050329#4"/>
    <trip id="veh78" type="veh_passenger" depart="310.53" departLane="best" departSpeed="max" from="518910434#0-AddedOnRampEdge" to="17205222#6"/>
    <trip id="veh79" type="veh_passenger" depart="314.52" departLane="best" from="17205222#0" to="294561112#14"/>
    <trip id="veh80" type="veh_passenger" depart="318.50" departLane="best" departSpeed="max" from="304618246#0" to="17205735#2"/>
    <trip id="veh81" type="veh_passenger" depart="322.48" departLane="best" departSpeed="max" from="304618246#0" to="658526864#1"/>
    <trip id="veh82" type="veh_passenger" depart="326.46" departLane="best" departSpeed="max" from="37051824#0" to="37052092#0"/>
    <trip id="veh83" type="veh_passenger" depart="330.44" departLane="best" from="889425358#1" to="518910430#2"/>
    <trip id="veh84" type="veh_passenger" depart="334.42" departLane="best" departSpeed="max" from="518910434#0-AddedOnRampEdge" to="132400906#1"/>
    <trip id="veh86" type="veh_passenger" depart="342.38" departLane="best" from="294561112#16" to="-37113369#3"/>
    <trip id="veh87" type="veh_passenger" depart="346.37" departLane="best" from="294443279#2" to="770925915#5"/>
    <trip id="veh88" type="veh_passenger" depart="350.35" departLane="best" departSpeed="max" from="304618246#0" to="25593473#0"/>
    <trip id="veh89" type="veh_passenger" depart="354.33" departLane="best" from="37051828#1" to="37915612#1"/>
    <trip id="veh90" type="veh_passenger" depart="358.31" departLane="best" from="-1057713529#3" to="17206470#6"/>
    <trip id="veh91" type="veh_passenger" depart="362.29" departLane="best" from="-770925915#1" to="37051419#5"/>
    <trip id="veh92" type="veh_passenger" depart="366.27" departLane="best" departSpeed="max" from="37051824#0" to="39606271#4"/>
    <trip id="veh93" type="veh_passenger" depart="370.25" departLane="best" departSpeed="max" from="-37052092#5" to="-37052092#0"/>
    <trip id="veh95" type="veh_passenger" depart="378.22" departLane="best" from="45050329#13" to="132400907#1"/>
    <trip id="veh96" type="veh_passenger" depart="382.20" departLane="best" from="37114305#3" to="37136833#3"/>
    <trip id="veh97" type="veh_passenger" depart="386.18" departLane="best" from="17205735#1" to="-554745331#1"/>
    <trip id="veh98" type="veh_passenger" depart="390.16" departLane="best" departSpeed="max" from="658342131#0" to="17205222#6"/>
    <trip id="veh99" type="veh_passenger" depart="394.14" departLane="best" from="37114305#3" to="37114303#0"/>
    <trip id="veh100" type="veh_passenger" depart="398.12" departLane="best" departSpeed="max" from="304618246#0" to="37052092#0"/>
    <trip id="veh101" type="veh_passenger" depart="402.10" departLane="best" from="17205222#4" to="37915612#1"/>
    <trip id="veh102" type="veh_passenger" depart="406.08" departLane="best" from="17205735#2" to="17227246#1"/>
    <trip id="veh103" type="veh_passenger" depart="410.06" departLane="best" departSpeed="max" from="39606271#0" to="17207856#0"/>
    <trip id="veh104" type="veh_passenger" depart="414.05" departLane="best" departSpeed="max" from="249305447#0" to="39606271#5"/>
    <trip id="veh105" type="veh_passenger" depart="418.03" departLane="best" from="37113369#3" to="294561112#18"/>
    <trip id="veh106" type="veh_passenger" depart="422.01" departLane="best" from="37113369#4" to="-132400957#3"/>
    <trip id="veh107" type="veh_passenger" depart="425.99" departLane="best" from="657760073" to="658526876#1"/>
    <trip id="veh108" type="veh_passenger" depart="429.97" departLane="best" from="-292256998#1" to="1057713531"/>
    <trip id="veh109" type="veh_passenger" depart="433.95" departLane="best" from="37114312#1" to="770925915#5"/>
    <trip id="veh110" type="veh_passenger" depart="437.93" departLane="best" departSpeed="max" from="39275723#0" to="1057713529#3"/>
    <trip id="veh111" type="veh_passenger" depart="441.91" departLane="best" departSpeed="max" from="45204087#0" to="17207856#0"/>
    <trip id="veh112" type="veh_passenger" depart="445.90" departLane="best" departSpeed="max" from="39606271#0" to="770925905#3"/>
    <trip id="veh113" type="veh_passenger" depart="449.88" departLane="best" departSpeed="max" from="-770925915#6" to="-518910430#2"/>
    <trip id="veh115" type="veh_passenger" depart="457.84" departLane="best" from="-17213698#2" to="37054458#1"/>
    <trip id="veh116" type="veh_passenger" depart="461.82" departLane="best" from="45050328" to="132400907#1"/>
    <trip id="veh117" type="veh_passenger" depart="465.80" departLane="best" from="37138017#3" to="17205224#4"/>
    <trip id="veh119" type="veh_passenger" depart="473.76" departLane="best" departSpeed="max" from="518910434#0-AddedOnRampEdge" to="-45050329#4"/>
    <trip id="veh120" type="veh_passenger" depart="477.75" departLane="best" departSpeed="max" from="304618246#0" to="17205735#1"/>
    <trip id="veh121" type="veh_passenger" depart="481.73" departLane="best" from="37915614#1" to="17205224#3"/>
    <trip id="veh123" type="veh_passenger" depart="489.69" departLane="best" departSpeed="max" from="304618246#0" to="132400906#1"/>
    <trip id="veh124" type="veh_passenger" depart="493.67" departLane="best" from="45050329#10" to="658526876#4"/>
    <trip id="veh126" type="veh_passenger" depart="501.63" departLane="best" from="-518910430#1" to="37051828#1"/>
    <trip id="veh127" type="veh_passenger" depart="505.61" departLane="best" departSpeed="max" from="45090429#0" to="658526864#1"/>
    <trip id="veh128" type="veh_passenger" depart="509.60" departLane="best" from="17205735#9" to="-45050329#5"/>
    <trip id="veh129" type="veh_passenger" depart="513.58" departLane="best" departSpeed="max" from="45090429#0" to="658526876#5"/>
    <trip id="veh130" type="veh_passenger" depart="517.56" departLane="best" from="294561112#2" to="37114303#1"/>
    <trip id="veh131" type="veh_passenger" depart="521.54" departLane="best" departSpeed="max" from="518910434#0-AddedOnRampEdge" to="770925915#5"/>
    <trip id="veh132" type="veh_passenger" depart="525.52" departLane="best" departSpeed="max" from="45204087#0" to="658526876#3"/>
    <trip id="veh133" type="veh_passenger" depart="529.50" departLane="best" departSpeed="max" from="-17221307#1" to="37915616#1"/>
    <trip id="veh134" type="veh_passenger" depart="533.48" departLane="best" departSpeed="max" from="249305447#0" to="770925905#3"/>
    <trip id="veh135" type="veh_passenger" depart="537.46" departLane="best" from="45090429#3" to="658526864#2"/>
    <trip id="veh136" type="veh_passenger" depart="541.44" departLane="best" departSpeed="max" from="45204087#0" to="17205224#5"/>
    <trip id="veh137" type="veh_passenger" depart="545.43" departLane="best" departSpeed="max" from="45090429#0" to="-45050329#9"/>
    <trip id="veh139" type="veh_passenger" depart="553.39" departLane="best" from="17205224#3" to="518910425#2"/>
    <trip id="veh140" type="veh_passenger" depart="557.37" departLane="best" from="304618246#4" to="17208008#0"/>
    <trip id="veh141" type="veh_passenger" depart="561.35" departLane="best" departSpeed="max" from="45090429#0" to="168728401#1"/>
    <trip id="veh142" type="veh_passenger" depart="565.33" departLane="best" departSpeed="max" from="-17221307#1" to="132400907#1"/>
    <trip id="veh143" type="veh_passenger" depart="569.31" departLane="best" departSpeed="max" from="249305447#0" to="658526864#2"/>
    <trip id="veh144" type="veh_passenger" depart="573.29" departLane="best" from="37915616#1" to="17227447#0"/>
    <trip id="veh146" type="veh_passenger" depart="581.26" departLane="best" from="658526880#1" to="518910430#2"/>
    <trip id="veh147" type="veh_passenger" depart="585.24" departLane="best" from="-770925915#2" to="132400907#1"/>
    <trip id="veh148" type="veh_passenger" depart="589.22" departLane="best" from="-770925915#1" to="294443279#3"/>
    <trip id="veh149" type="veh_passenger" depart="593.20" departLane="best" departSpeed="max" from="45050329#0" to="17213444#1"/>
    <trip id="veh150" type="veh_passenger" depart="597.18" departLane="best" from="294443279#4" to="37051419#5"/>
    <trip id="veh151" type="veh_passenger" depart="601.16" departLane="best" from="17206470#5" to="37915612#1"/>
    <trip id="veh152" type="veh_passenger" depart="605.14" departLane="best" departSpeed="max" from="37051824#0" to="37915612#1"/>
    <trip id="veh153" type="veh_passenger" depart="609.13" departLane="best" departSpeed="max" from="45050329#0" to="37136833#3"/>
    <trip id="veh154" type="veh_passenger" depart="613.11" departLane="best" departSpeed="max" from="249305447#0" to="-45050329#14"/>
    <trip id="veh155" type="veh_passenger" depart="617.09" departLane="best" departSpeed="max" from="39606271#0" to="17213444#1"/>
    <trip id="veh156" type="veh_passenger" depart="621.07" departLane="best" departSpeed="max" from="249305447#0" to="656618859#2"/>
    <trip id="veh157" type="veh_passenger" depart="625.05" departLane="best" departSpeed="max" from="45050329#0" to="17207856#0"/>
    <trip id="veh159" type="veh_passenger" depart="633.01" departLane="best" departSpeed="max" from="-770925915#6" to="25593473#0"/>
    <trip id="veh160" type="veh_passenger" depart="636.99" departLane="best" from="658526880#1" to="37136833#3"/>
    <trip id="veh161" type="veh_passenger" depart="640.98" departLane="best" departSpeed="max" from="658342131#0" to="-37113369#1"/>
    <trip id="veh163" type="veh_passenger" depart="648.94" departLane="best" departSpeed="max" from="304618246#0" to="37051419#5"/>
    <trip id="veh164" type="veh_passenger" depart="652.92" departLane="best" departSpeed="max" from="304618246#0" to="-132400957#3"/>
    <trip id="veh166" type="veh_passenger" depart="660.88" departLane="best" departSpeed="max" from="45090429#0" to="132400907#1"/>
    <trip id="veh168" type="veh_passenger" depart="668.84" departLane="best" from="37138017#3" to="17213444#1"/>
    <trip id="veh169" type="veh_passenger" depart="672.82" departLane="best" departSpeed="max" from="45204087#0" to="39606271#5"/>
    <trip id="veh170" type="veh_passenger" depart="676.81" departLane="best" from="17205222#2" to="-132400957#2"/>
    <trip id="veh171" type="veh_passenger" depart="680.79" departLane="best" from="17205735#7" to="294561112#19"/>
    <trip id="veh172" type="veh_passenger" depart="684.77" departLane="best" departSpeed="max" from="518910434#0-AddedOnRampEdge" to="45050329#15"/>
    <trip id="veh173" type="veh_passenger" depart="688.75" departLane="best" from="17205222#1" to="37136833#3"/>
    <trip id="veh175" type="veh_passenger" depart="696.71" departLane="best" departSpeed="max" from="39275723#0" to="1057713529#3"/>
    <trip id="veh176" type="veh_passenger" depart="700.69" departLane="best" from="554745331#1" to="-292256998#2"/>
    <trip id="veh177" type="veh_passenger" depart="704.67" departLane="best" departSpeed="max" from="132400957#0" to="770925915#2"/>
    <trip id="veh178" type="veh_passenger" depart="708.66" departLane="best" from="367540762#1" to="37052092#0"/>
    <trip id="veh179" type="veh_passenger" depart="712.64" departLane="best" from="17205735#9" to="656618859#2"/>
    <trip id="veh180" type="veh_passenger" depart="716.62" departLane="best" departSpeed="max" from="304618246#0" to="45205305#1"/>
    <trip id="veh181" type="veh_passenger" depart="720.60" departLane="best" departSpeed="max" from="39606271#0" to="770925915#5"/>
    <trip id="veh182" type="veh_passenger" depart="724.58" departLane="best" from="37114305#3" to="770925907"/>
    <trip id="veh183" type="veh_passenger" depart="728.56" departLane="best" departSpeed="max" from="658342131#0" to="37054458#6"/>
    <trip id="veh184" type="veh_passenger" depart="732.54" departLane="best" departSpeed="max" from="45050329#0" to="306461344#2"/>
    <trip id="veh187" type="veh_passenger" depart="744.49" departLane="best" from="17205735#8" to="37114305#4"/>
    <trip id="veh189" type="veh_passenger" depart="752.45" departLane="best" from="37136833#1" to="17205224#7"/>
    <trip id="veh190" type="veh_passenger" depart="756.43" departLane="best" from="-17213698#1" to="17213444#1"/>
    <trip id="veh191" type="veh_passenger" depart="760.41" departLane="best" departSpeed="max" from="37051824#0" to="-88617178#0"/>
    <trip id="veh192" type="veh_passenger" depart="764.39" departLane="best" from="17205224#6" to="37136833#3"/>
    <trip id="veh193" type="veh_passenger" depart="768.37" departLane="best" from="39606271#4" to="-45050329#11"/>
    <trip id="veh195" type="veh_passenger" depart="776.34" departLane="best" from="294561112#9" to="132400907#1"/>
    <trip id="veh196" type="veh_passenger" depart="780.32" departLane="best" departSpeed="max" from="304618246#0" to="770925904#2"/>
    <trip id="veh197" type="veh_passenger" depart="784.30" departLane="best" from="37114303#14" to="37136833#3"/>
    <trip id="veh198" type="veh_passenger" depart="788.28" departLane="best" departSpeed="max" from="518910434#0-AddedOnRampEdge" to="45050329#13"/>
    <trip id="veh199" type="veh_passenger" depart="792.26" departLane="best" from="294443279#3" to="1057713529#3"/>
    <trip id="veh200" type="veh_passenger" depart="796.24" departLane="best" departSpeed="max" from="249305447#0" to="39606271#7"/>
</routes>
