<?xml version="1.0" encoding="UTF-8"?>

<!-- generated on 2023-12-18 17:10:47.649067 by osmWebWizard.py UNKNOWN
<configuration>
    <net-file value="/Users/lukemozarsky/2023-12-18-17-10-42/osm.net.xml.gz"/>
    <output-trip-file value="/Users/lukemozarsky/2023-12-18-17-10-42/osm.passenger.trips.xml"/>
    <route-file value="/Users/lukemozarsky/2023-12-18-17-10-42/osm.passenger.rou.xml"/>
    <prefix value="veh"/>
    <trip-attributes value="departLane=&quot;best&quot;"/>
    <fringe-start-attributes value="departSpeed=&quot;max&quot;"/>
    <vehicle-class value="passenger"/>
    <lanes value="True"/>
    <fringe-factor value="10"/>
    <allow-fringe.min-length value="1000.0"/>
    <via-edge-types value="highway.motorway,highway.motorway_link,highway.trunk_link,highway.primary_link,highway.secondary_link,highway.tertiary_link"/>
    <min-distance value="300.0"/>
    <min-distance.fringe value="10.0"/>
    <remove-loops value="True"/>
    <validate value="True"/>
    <insertion-density value="50.0"/>
</configuration>
-->

<!-- generated on 2023-12-18 17:10:47 by Eclipse SUMO duarouter Version 1.19.0
<configuration xmlns:xsi="http://www.w3.org/2001/XMLSchema-instance" xsi:noNamespaceSchemaLocation="http://sumo.dlr.de/xsd/duarouterConfiguration.xsd">

    <input>
        <net-file value="/Users/lukemozarsky/2023-12-18-17-10-42/osm.net.xml.gz"/>
        <route-files value="/Users/lukemozarsky/2023-12-18-17-10-42/osm.passenger.trips.xml"/>
    </input>

    <output>
        <output-file value="/Users/lukemozarsky/2023-12-18-17-10-42/osm.passenger.trips.xml.tmp"/>
        <alternatives-output value="NUL"/>
        <write-trips value="true"/>
    </output>

    <processing>
        <remove-loops value="true"/>
    </processing>

    <time>
        <begin value="0.0"/>
        <end value="3600.0"/>
    </time>

    <report>
        <no-warnings value="true"/>
        <ignore-errors value="true"/>
        <no-step-log value="true"/>
    </report>

</configuration>
-->

<routes xmlns:xsi="http://www.w3.org/2001/XMLSchema-instance" xsi:noNamespaceSchemaLocation="http://sumo.dlr.de/xsd/routes_file.xsd">
    <vType id="veh_passenger" vClass="passenger"/>
    <trip id="veh0" type="veh_passenger" depart="0.00" departLane="best" from="37051824#2" to="-17209803#3"/>
    <trip id="veh2" type="veh_passenger" depart="2.44" departLane="best" from="-52095236#2" to="-37051973#8"/>
    <trip id="veh3" type="veh_passenger" depart="3.66" departLane="best" departSpeed="max" from="17225655#0" to="-17212629#1"/>
    <trip id="veh4" type="veh_passenger" depart="4.89" departLane="best" from="1106807198#1" to="271363702#1"/>
    <trip id="veh5" type="veh_passenger" depart="6.11" departLane="best" departSpeed="max" from="-168728317#1" to="132400906#1"/>
    <trip id="veh6" type="veh_passenger" depart="7.33" departLane="best" from="37051973#8" to="294561112#1"/>
    <trip id="veh7" type="veh_passenger" depart="8.55" departLane="best" from="1107046529#1" to="340328042#2"/>
    <trip id="veh8" type="veh_passenger" depart="9.77" departLane="best" from="39435612#1" to="-1087754476#1"/>
    <trip id="veh9" type="veh_passenger" depart="10.99" departLane="best" departSpeed="max" from="39435491#0" to="37114305#0"/>
    <trip id="veh10" type="veh_passenger" depart="12.21" departLane="best" from="17213444#2" to="1057713532"/>
    <trip id="veh11" type="veh_passenger" depart="13.43" departLane="best" from="658581086#1" to="17218405#5"/>
    <trip id="veh13" type="veh_passenger" depart="15.88" departLane="best" departSpeed="max" from="45050329#0" to="344099607#2"/>
    <trip id="veh14" type="veh_passenger" depart="17.10" departLane="best" departSpeed="max" from="39435491#0" to="37136833#1"/>
    <trip id="veh15" type="veh_passenger" depart="18.32" departLane="best" from="132400966#4" to="770925915#1"/>
    <trip id="veh16" type="veh_passenger" depart="19.54" departLane="best" departSpeed="max" from="17219050#0" to="294561112#16"/>
    <trip id="veh17" type="veh_passenger" depart="20.76" departLane="best" from="39606273#7" to="344626914#2"/>
    <trip id="veh18" type="veh_passenger" depart="21.98" departLane="best" from="45090429#5" to="304618246#3"/>
    <trip id="veh19" type="veh_passenger" depart="23.21" departLane="best" from="37136831#2" to="-17219050#0"/>
    <trip id="veh20" type="veh_passenger" depart="24.43" departLane="best" from="1126776173#1" to="-17207906#0"/>
    <trip id="veh21" type="veh_passenger" depart="25.65" departLane="best" departSpeed="max" from="-263453002#1" to="168728317#1"/>
    <trip id="veh22" type="veh_passenger" depart="26.87" departLane="best" from="37051973#6" to="17205735#2"/>
    <trip id="veh23" type="veh_passenger" depart="28.09" departLane="best" from="-37051823#1" to="17221804#3"/>
    <trip id="veh24" type="veh_passenger" depart="29.31" departLane="best" from="17218405#5" to="132400907#5"/>
    <trip id="veh25" type="veh_passenger" depart="30.53" departLane="best" departSpeed="max" from="132400957#0" to="658581240#2"/>
    <trip id="veh26" type="veh_passenger" depart="31.76" departLane="best" from="37051973#6" to="344099607#2"/>
    <trip id="veh27" type="veh_passenger" depart="32.98" departLane="best" departSpeed="max" from="-770925915#4" to="37136833#1"/>
    <trip id="veh28" type="veh_passenger" depart="34.20" departLane="best" departSpeed="max" from="-770925909" to="17224420#5"/>
    <trip id="veh29" type="veh_passenger" depart="35.42" departLane="best" from="889425358#1" to="37051419#5"/>
    <trip id="veh30" type="veh_passenger" depart="36.64" departLane="best" departSpeed="max" from="45050329#0" to="-39275905#11"/>
    <trip id="veh31" type="veh_passenger" depart="37.86" departLane="best" from="1126776173#1" to="17212629#8"/>
    <trip id="veh32" type="veh_passenger" depart="39.08" departLane="best" from="-1087754476#0" to="770925904#2"/>
    <trip id="veh33" type="veh_passenger" depart="40.30" departLane="best" from="45683096#3" to="17213444#4"/>
    <trip id="veh34" type="veh_passenger" depart="41.53" departLane="best" from="37054455#2" to="17227246#1"/>
    <trip id="veh35" type="veh_passenger" depart="42.75" departLane="best" departSpeed="max" from="624163581#0" to="249270974#1"/>
    <trip id="veh36" type="veh_passenger" depart="43.97" departLane="best" departSpeed="max" from="132400957#0" to="17202186"/>
    <trip id="veh39" type="veh_passenger" depart="47.63" departLane="best" departSpeed="max" from="17224216#0" to="132400937#1"/>
    <trip id="veh40" type="veh_passenger" depart="48.85" departLane="best" from="987561406#0" to="28866897#1"/>
    <trip id="veh41" type="veh_passenger" depart="50.08" departLane="best" from="292256998#2" to="-17219050#0"/>
    <trip id="veh42" type="veh_passenger" depart="51.30" departLane="best" departSpeed="max" from="-37052092#2" to="344626917"/>
    <trip id="veh43" type="veh_passenger" depart="52.52" departLane="best" departSpeed="max" from="39435491#0" to="23322421#1"/>
    <trip id="veh44" type="veh_passenger" depart="53.74" departLane="best" from="-17226392#4" to="17226088#0"/>
    <trip id="veh45" type="veh_passenger" depart="54.96" departLane="best" from="987561406#0" to="293638418#1"/>
    <trip id="veh46" type="veh_passenger" depart="56.18" departLane="best" from="658581240#0" to="52095236#2"/>
    <trip id="veh47" type="veh_passenger" depart="57.40" departLane="best" departSpeed="max" from="-1097215715#5" to="37114312#3"/>
    <trip id="veh48" type="veh_passenger" depart="58.62" departLane="best" from="37114305#5" to="293638420#0"/>
    <trip id="veh49" type="veh_passenger" depart="59.85" departLane="best" departSpeed="max" from="132400957#0" to="37051823#1"/>
    <trip id="veh50" type="veh_passenger" depart="61.07" departLane="best" departSpeed="max" from="-37052092#2" to="23322421#1"/>
    <trip id="veh51" type="veh_passenger" depart="62.29" departLane="best" from="181116504#2" to="770925905#2"/>
    <trip id="veh52" type="veh_passenger" depart="63.51" departLane="best" from="45683096#3" to="17205222#7"/>
    <trip id="veh53" type="veh_passenger" depart="64.73" departLane="best" from="-249305449#1" to="1109949206#1"/>
    <trip id="veh54" type="veh_passenger" depart="65.95" departLane="best" departSpeed="max" from="624163581#0" to="656618858#1"/>
    <trip id="veh55" type="veh_passenger" depart="67.17" departLane="best" from="17205224#5" to="37051419#1"/>
    <trip id="veh56" type="veh_passenger" depart="68.40" departLane="best" departSpeed="max" from="358582109#0" to="1057713529#3"/>
    <trip id="veh57" type="veh_passenger" depart="69.62" departLane="best" from="39275905#7" to="294443279#1"/>
    <trip id="veh58" type="veh_passenger" depart="70.84" departLane="best" from="39362439#3" to="293638418#2"/>
    <trip id="veh59" type="veh_passenger" depart="72.06" departLane="best" from="-1057713529#0" to="17216777#1"/>
    <trip id="veh60" type="veh_passenger" depart="73.28" departLane="best" from="-132400906#1" to="658581209#0"/>
    <trip id="veh61" type="veh_passenger" depart="74.50" departLane="best" from="45683096#4" to="45090429#4"/>
    <trip id="veh62" type="veh_passenger" depart="75.72" departLane="best" from="17205735#3" to="17226392#4"/>
    <trip id="veh63" type="veh_passenger" depart="76.95" departLane="best" from="45683096#4" to="770925904#2"/>
    <trip id="veh64" type="veh_passenger" depart="78.17" departLane="best" departSpeed="max" from="39276274#0" to="-45050329#5"/>
    <trip id="veh65" type="veh_passenger" depart="79.39" departLane="best" from="249270973#1" to="294561112#15"/>
    <trip id="veh66" type="veh_passenger" depart="80.61" departLane="best" departSpeed="max" from="132400957#0" to="656618858#1"/>
    <trip id="veh67" type="veh_passenger" depart="81.83" departLane="best" departSpeed="max" from="17225655#0" to="132400907#6"/>
    <trip id="veh68" type="veh_passenger" depart="83.05" departLane="best" from="293638418#3" to="37136833#1"/>
    <trip id="veh69" type="veh_passenger" depart="84.27" departLane="best" from="1047723751#2" to="17213444#3"/>
    <trip id="veh70" type="veh_passenger" depart="85.49" departLane="best" from="987561406#0" to="37051973#1"/>
    <trip id="veh71" type="veh_passenger" depart="86.72" departLane="best" departSpeed="max" from="17227712#0" to="292256996#3"/>
    <trip id="veh72" type="veh_passenger" depart="87.94" departLane="best" departSpeed="max" from="-37052278" to="132400966#1"/>
    <trip id="veh73" type="veh_passenger" depart="89.16" departLane="best" from="17213444#1" to="340328042#2"/>
    <trip id="veh74" type="veh_passenger" depart="90.38" departLane="best" from="181116504#3" to="367540763#0"/>
    <trip id="veh75" type="veh_passenger" depart="91.60" departLane="best" from="1126776173#1" to="658526873#1"/>
    <trip id="veh76" type="veh_passenger" depart="92.82" departLane="best" from="45090429#4" to="249305449#2"/>
    <trip id="veh77" type="veh_passenger" depart="94.04" departLane="best" from="132400907#2" to="37052278"/>
    <trip id="veh78" type="veh_passenger" depart="95.27" departLane="best" from="1092342496#1" to="-45050329#5"/>
    <trip id="veh79" type="veh_passenger" depart="96.49" departLane="best" from="248116150#7" to="39362439#3"/>
    <trip id="veh80" type="veh_passenger" depart="97.71" departLane="best" departSpeed="max" from="39435491#0" to="1118287448#2"/>
    <trip id="veh81" type="veh_passenger" depart="98.93" departLane="best" from="-37051828#1" to="23322421#1"/>
    <trip id="veh82" type="veh_passenger" depart="100.15" departLane="best" departSpeed="max" from="17225655#0" to="249305446#1"/>
    <trip id="veh83" type="veh_passenger" depart="101.37" departLane="best" from="37138017#1" to="37052278"/>
    <trip id="veh85" type="veh_passenger" depart="103.81" departLane="best" departSpeed="max" from="17224216#0" to="17218405#8"/>
    <trip id="veh86" type="veh_passenger" depart="105.04" departLane="best" from="45090429#5" to="17202186"/>
    <trip id="veh87" type="veh_passenger" depart="106.26" departLane="best" departSpeed="max" from="-987561408#1" to="248116150#1"/>
    <trip id="veh88" type="veh_passenger" depart="107.48" departLane="best" departSpeed="max" from="17225655#0" to="17205735#3"/>
    <trip id="veh89" type="veh_passenger" depart="108.70" departLane="best" from="132400907#7" to="658581086#3"/>
    <trip id="veh90" type="veh_passenger" depart="109.92" departLane="best" departSpeed="max" from="17227712#0" to="52095236#4"/>
    <trip id="veh91" type="veh_passenger" depart="111.14" departLane="best" from="294443279#3" to="-17219050#0"/>
    <trip id="veh92" type="veh_passenger" depart="112.36" departLane="best" from="-987561408#1" to="-45204238#1"/>
    <trip id="veh93" type="veh_passenger" depart="113.59" departLane="best" departSpeed="max" from="45050329#0" to="1097215715#4"/>
    <trip id="veh94" type="veh_passenger" depart="114.81" departLane="best" from="249270975#1" to="132400907#7"/>
    <trip id="veh95" type="veh_passenger" depart="116.03" departLane="best" departSpeed="max" from="17224216#0" to="17226392#5"/>
    <trip id="veh96" type="veh_passenger" depart="117.25" departLane="best" departSpeed="max" from="17219050#0" to="770925915#2"/>
    <trip id="veh97" type="veh_passenger" depart="118.47" departLane="best" departSpeed="max" from="132400957#0" to="39362439#3"/>
    <trip id="veh98" type="veh_passenger" depart="119.69" departLane="best" from="186873193" to="23322421#1"/>
    <trip id="veh99" type="veh_passenger" depart="120.91" departLane="best" from="37136832#5" to="37114312#1"/>
    <trip id="veh100" type="veh_passenger" depart="122.14" departLane="best" departSpeed="max" from="-52095236#5" to="-17210867#1"/>
    <trip id="veh101" type="veh_passenger" depart="123.36" departLane="best" from="658581240#0" to="304618246#4"/>
    <trip id="veh102" type="veh_passenger" depart="124.58" departLane="best" from="293638419#2" to="37138017#3"/>
    <trip id="veh103" type="veh_passenger" depart="125.80" departLane="best" from="-17219050#2" to="340328042#0"/>
    <trip id="veh104" type="veh_passenger" depart="127.02" departLane="best" from="249840348#1" to="45683097#2"/>
    <trip id="veh105" type="veh_passenger" depart="128.24" departLane="best" from="-658581086#3" to="770925905#2"/>
    <trip id="veh106" type="veh_passenger" depart="129.46" departLane="best" departSpeed="max" from="-263453002#1" to="1109949206#1"/>
    <trip id="veh107" type="veh_passenger" depart="130.68" departLane="best" from="344626916" to="37052278"/>
    <trip id="veh108" type="veh_passenger" depart="131.91" departLane="best" from="132400907#1" to="-39360681#0"/>
    <trip id="veh110" type="veh_passenger" depart="134.35" departLane="best" departSpeed="max" from="17225655#0" to="306461344#9"/>
    <trip id="veh111" type="veh_passenger" depart="135.57" departLane="best" from="292256996#3" to="658581240#1"/>
    <trip id="veh112" type="veh_passenger" depart="136.79" departLane="best" from="132400907#2" to="17227246#1"/>
    <trip id="veh113" type="veh_passenger" depart="138.01" departLane="best" from="37114303#2" to="17212141#1"/>
    <trip id="veh114" type="veh_passenger" depart="139.23" departLane="best" from="17207856#1" to="37138485#1"/>
    <trip id="veh115" type="veh_passenger" depart="140.46" departLane="best" from="-249305448#0" to="132400907#7"/>
    <trip id="veh116" type="veh_passenger" depart="141.68" departLane="best" departSpeed="max" from="132400957#0" to="658581240#1"/>
    <trip id="veh117" type="veh_passenger" depart="142.90" departLane="best" from="45683097#1" to="656618858#1"/>
    <trip id="veh118" type="veh_passenger" depart="144.12" departLane="best" from="17218405#4" to="1087754476#0"/>
    <trip id="veh120" type="veh_passenger" depart="146.56" departLane="best" departSpeed="max" from="358582109#0" to="770925915#2"/>
    <trip id="veh121" type="veh_passenger" depart="147.78" departLane="best" from="37138484#1" to="1097215715#1"/>
    <trip id="veh122" type="veh_passenger" depart="149.00" departLane="best" from="39606271#5" to="17212141#1"/>
    <trip id="veh123" type="veh_passenger" depart="150.23" departLane="best" from="-37138485#1" to="-39276274#1"/>
    <trip id="veh124" type="veh_passenger" depart="151.45" departLane="best" departSpeed="max" from="-37052092#2" to="294561112#18"/>
    <trip id="veh125" type="veh_passenger" depart="152.67" departLane="best" from="132400966#2" to="344099607#2"/>
    <trip id="veh126" type="veh_passenger" depart="153.89" departLane="best" from="37136834#2" to="132400907#2"/>
    <trip id="veh127" type="veh_passenger" depart="155.11" departLane="best" from="37051419#4" to="17205222#7"/>
    <trip id="veh128" type="veh_passenger" depart="156.33" departLane="best" from="249270975#2" to="658526873#1"/>
    <trip id="veh129" type="veh_passenger" depart="157.55" departLane="best" departSpeed="max" from="45050329#0" to="-37113369#4"/>
    <trip id="veh130" type="veh_passenger" depart="158.78" departLane="best" departSpeed="max" from="17225655#0" to="17205735#1"/>
    <trip id="veh131" type="veh_passenger" depart="160.00" departLane="best" from="-1057713529#3" to="37915614#1"/>
    <trip id="veh132" type="veh_passenger" depart="161.22" departLane="best" from="37051824#0" to="17205222#6"/>
    <trip id="veh133" type="veh_passenger" depart="162.44" departLane="best" from="17226088#1" to="-1186043604"/>
    <trip id="veh134" type="veh_passenger" depart="163.66" departLane="best" from="-249305448#6" to="656618859#1"/>
    <trip id="veh135" type="veh_passenger" depart="164.88" departLane="best" departSpeed="max" from="624163581#0" to="294561112#10"/>
    <trip id="veh136" type="veh_passenger" depart="166.10" departLane="best" from="45050328" to="306461344#7"/>
    <trip id="veh137" type="veh_passenger" depart="167.33" departLane="best" departSpeed="max" from="-52095236#5" to="-45050329#5"/>
    <trip id="veh138" type="veh_passenger" depart="168.55" departLane="best" from="17205735#7" to="37114303#10"/>
    <trip id="veh139" type="veh_passenger" depart="169.77" departLane="best" departSpeed="max" from="39435491#0" to="52095236#2"/>
    <trip id="veh140" type="veh_passenger" depart="170.99" departLane="best" departSpeed="max" from="624163581#0" to="132400907#5"/>
    <trip id="veh141" type="veh_passenger" depart="172.21" departLane="best" from="132400907#7" to="-37914992#3"/>
    <trip id="veh142" type="veh_passenger" depart="173.43" departLane="best" from="39362439#4" to="656618859#1"/>
    <trip id="veh143" type="veh_passenger" depart="174.65" departLane="best" from="17224420#1" to="344626914#3"/>
    <trip id="veh144" type="veh_passenger" depart="175.87" departLane="best" departSpeed="max" from="-52095236#5" to="658581240#0"/>
    <trip id="veh145" type="veh_passenger" depart="177.10" departLane="best" from="45204087#1" to="770925915#2"/>
    <trip id="veh146" type="veh_passenger" depart="178.32" departLane="best" from="39494751#1" to="656618858#1"/>
    <trip id="veh147" type="veh_passenger" depart="179.54" departLane="best" departSpeed="max" from="-168728317#1" to="37136834#2"/>
    <trip id="veh148" type="veh_passenger" depart="180.76" departLane="best" from="-17212141#2" to="658581240#0"/>
    <trip id="veh149" type="veh_passenger" depart="181.98" departLane="best" departSpeed="max" from="39435491#0" to="52095236#4"/>
    <trip id="veh150" type="veh_passenger" depart="183.20" departLane="best" from="39494751#1" to="17205224#1"/>
    <trip id="veh151" type="veh_passenger" depart="184.42" departLane="best" departSpeed="max" from="39435491#0" to="-39275905#6"/>
    <trip id="veh152" type="veh_passenger" depart="185.65" departLane="best" from="1118287448#1" to="39606297#7"/>
    <trip id="veh153" type="veh_passenger" depart="186.87" departLane="best" departSpeed="max" from="39435491#0" to="132400966#3"/>
    <trip id="veh154" type="veh_passenger" depart="188.09" departLane="best" departSpeed="max" from="-168728317#1" to="1126776173#0"/>
    <trip id="veh155" type="veh_passenger" depart="189.31" departLane="best" from="17212141#1" to="52095236#4"/>
    <trip id="veh156" type="veh_passenger" depart="190.53" departLane="best" from="658581209#0" to="17205735#3"/>
    <trip id="veh158" type="veh_passenger" depart="192.97" departLane="best" from="658526864#7" to="-39276274#1"/>
    <trip id="veh159" type="veh_passenger" depart="194.19" departLane="best" from="-658581086#3" to="17205224#0"/>
    <trip id="veh160" type="veh_passenger" depart="195.42" departLane="best" departSpeed="max" from="-37052092#2" to="23322421#1"/>
    <trip id="veh161" type="veh_passenger" depart="196.64" departLane="best" from="37136835#1" to="17213444#4"/>
    <trip id="veh162" type="veh_passenger" depart="197.86" departLane="best" departSpeed="max" from="358582109#0" to="28866897#6"/>
    <trip id="veh163" type="veh_passenger" depart="199.08" departLane="best" from="17219549#2" to="304618246#3"/>
    <trip id="veh164" type="veh_passenger" depart="200.30" departLane="best" from="132400922#1" to="37114310#2"/>
    <trip id="veh165" type="veh_passenger" depart="201.52" departLane="best" from="-1057713529#2" to="658581208#1"/>
    <trip id="veh166" type="veh_passenger" depart="202.74" departLane="best" from="293638418#3" to="37114312#1"/>
    <trip id="veh167" type="veh_passenger" depart="203.97" departLane="best" from="37915614#2" to="37052278"/>
    <trip id="veh168" type="veh_passenger" depart="205.19" departLane="best" from="17217719#1" to="249305449#1"/>
    <trip id="veh169" type="veh_passenger" depart="206.41" departLane="best" from="37113310#3" to="17216777#1"/>
    <trip id="veh171" type="veh_passenger" depart="208.85" departLane="best" from="37136834#3" to="17212141#1"/>
    <trip id="veh172" type="veh_passenger" depart="210.07" departLane="best" from="17205735#8" to="186873193"/>
    <trip id="veh173" type="veh_passenger" depart="211.29" departLane="best" departSpeed="max" from="17224216#0" to="-17209803#3"/>
    <trip id="veh174" type="veh_passenger" depart="212.51" departLane="best" departSpeed="max" from="-37052278" to="23322421#1"/>
    <trip id="veh175" type="veh_passenger" depart="213.74" departLane="best" from="658526869#0" to="37052757#4"/>
    <trip id="veh176" type="veh_passenger" depart="214.96" departLane="best" departSpeed="max" from="624163581#0" to="344626914#1"/>
    <trip id="veh177" type="veh_passenger" depart="216.18" departLane="best" from="17205224#6" to="294561112#13"/>
    <trip id="veh178" type="veh_passenger" depart="217.40" departLane="best" from="17226392#4" to="306461344#1"/>
    <trip id="veh179" type="veh_passenger" depart="218.62" departLane="best" from="37054455#1" to="249270975#2"/>
    <trip id="veh180" type="veh_passenger" depart="219.84" departLane="best" departSpeed="max" from="17227712#0" to="132400907#7"/>
    <trip id="veh181" type="veh_passenger" depart="221.06" departLane="best" from="248116150#7" to="658526864#6"/>
    <trip id="veh182" type="veh_passenger" depart="222.29" departLane="best" departSpeed="max" from="39435491#0" to="1097215715#4"/>
    <trip id="veh183" type="veh_passenger" depart="223.51" departLane="best" departSpeed="max" from="-263453002#1" to="292256996#2"/>
    <trip id="veh184" type="veh_passenger" depart="224.73" departLane="best" departSpeed="max" from="37049328#0" to="17218405#2"/>
    <trip id="veh185" type="veh_passenger" depart="225.95" departLane="best" from="39606271#6" to="37138484#1"/>
    <trip id="veh186" type="veh_passenger" depart="227.17" departLane="best" from="37114303#5" to="132400966#1"/>
    <trip id="veh187" type="veh_passenger" depart="228.39" departLane="best" departSpeed="max" from="-987561408#1" to="-17209803#2"/>
    <trip id="veh188" type="veh_passenger" depart="229.61" departLane="best" from="132400907#5" to="249305448#5"/>
    <trip id="veh189" type="veh_passenger" depart="230.84" departLane="best" departSpeed="max" from="45050329#0" to="-265726534"/>
    <trip id="veh190" type="veh_passenger" depart="232.06" departLane="best" departSpeed="max" from="17225655#0" to="367540762#2"/>
    <trip id="veh191" type="veh_passenger" depart="233.28" departLane="best" departSpeed="max" from="-987561408#1" to="37114303#6"/>
    <trip id="veh192" type="veh_passenger" depart="234.50" departLane="best" from="37054455#2" to="-1087754476#1"/>
    <trip id="veh193" type="veh_passenger" depart="235.72" departLane="best" departSpeed="max" from="39275723#0" to="37915612#1"/>
    <trip id="veh194" type="veh_passenger" depart="236.94" departLane="best" departSpeed="max" from="-37052092#2" to="23322421#1"/>
    <trip id="veh195" type="veh_passenger" depart="238.16" departLane="best" departSpeed="max" from="-770925915#4" to="770925905#2"/>
    <trip id="veh196" type="veh_passenger" depart="239.38" departLane="best" from="292256996#1" to="-17219050#0"/>
    <trip id="veh198" type="veh_passenger" depart="241.83" departLane="best" from="216414503#1" to="39606271#6"/>
    <trip id="veh199" type="veh_passenger" depart="243.05" departLane="best" from="37114303#0" to="770925915#2"/>
    <trip id="veh200" type="veh_passenger" depart="244.27" departLane="best" from="344626916" to="770925905#2"/>
    <trip id="veh201" type="veh_passenger" depart="245.49" departLane="best" from="-52095236#1" to="344099607#2"/>
    <trip id="veh202" type="veh_passenger" depart="246.71" departLane="best" from="37136834#3" to="265726534"/>
    <trip id="veh203" type="veh_passenger" depart="247.93" departLane="best" from="39606273#8" to="294561112#13"/>
    <trip id="veh204" type="veh_passenger" depart="249.16" departLane="best" departSpeed="max" from="624163581#0" to="37136835#1"/>
    <trip id="veh205" type="veh_passenger" depart="250.38" departLane="best" from="249270973#1" to="17205222#4"/>
    <trip id="veh206" type="veh_passenger" depart="251.60" departLane="best" from="132400907#6" to="367540763#1"/>
    <trip id="veh207" type="veh_passenger" depart="252.82" departLane="best" departSpeed="max" from="39276274#0" to="-292256999#2"/>
    <trip id="veh208" type="veh_passenger" depart="254.04" departLane="best" departSpeed="max" from="37049328#0" to="17205224#7"/>
    <trip id="veh209" type="veh_passenger" depart="255.26" departLane="best" from="-249305449#2" to="17206470#3"/>
    <trip id="veh210" type="veh_passenger" depart="256.48" departLane="best" from="132400966#2" to="17213998#1"/>
    <trip id="veh211" type="veh_passenger" depart="257.70" departLane="best" from="293638418#4" to="-45050329#7"/>
    <trip id="veh212" type="veh_passenger" depart="258.93" departLane="best" from="1153385863" to="37114303#2"/>
    <trip id="veh213" type="veh_passenger" depart="260.15" departLane="best" from="37114305#6" to="-181116504#2"/>
    <trip id="veh214" type="veh_passenger" depart="261.37" departLane="best" from="17224420#2" to="294443279#4"/>
    <trip id="veh215" type="veh_passenger" depart="262.59" departLane="best" departSpeed="max" from="17225655#0" to="132400907#4"/>
    <trip id="veh216" type="veh_passenger" depart="263.81" departLane="best" departSpeed="max" from="17225655#0" to="658526869#2"/>
    <trip id="veh218" type="veh_passenger" depart="266.25" departLane="best" from="45050334#1" to="37634812#2"/>
    <trip id="veh219" type="veh_passenger" depart="267.48" departLane="best" departSpeed="max" from="17219050#0" to="-1087754476#1"/>
    <trip id="veh220" type="veh_passenger" depart="268.70" departLane="best" from="17213998#2" to="37347819"/>
    <trip id="veh221" type="veh_passenger" depart="269.92" departLane="best" departSpeed="max" from="17225655#0" to="37138017#1"/>
    <trip id="veh222" type="veh_passenger" depart="271.14" departLane="best" from="294443279#1" to="344099607#2"/>
    <trip id="veh223" type="veh_passenger" depart="272.36" departLane="best" from="1107046529#1" to="132400937#1"/>
    <trip id="veh224" type="veh_passenger" depart="273.58" departLane="best" from="17227246#2" to="17212141#1"/>
    <trip id="veh225" type="veh_passenger" depart="274.80" departLane="best" from="17212629#8" to="37054455#1"/>
    <trip id="veh226" type="veh_passenger" depart="276.03" departLane="best" departSpeed="max" from="17224216#0" to="1097215715#4"/>
    <trip id="veh227" type="veh_passenger" depart="277.25" departLane="best" from="45050328" to="-45050329#5"/>
    <trip id="veh228" type="veh_passenger" depart="278.47" departLane="best" departSpeed="max" from="367540762#0" to="-17210867#2"/>
    <trip id="veh229" type="veh_passenger" depart="279.69" departLane="best" from="17222580#1" to="294561112#19"/>
    <trip id="veh230" type="veh_passenger" depart="280.91" departLane="best" departSpeed="max" from="-168728317#1" to="37051824#1"/>
    <trip id="veh231" type="veh_passenger" depart="282.13" departLane="best" from="-1087754476#0" to="17216777#1"/>
    <trip id="veh232" type="veh_passenger" depart="283.35" departLane="best" from="39275905#11" to="17224420#4"/>
    <trip id="veh233" type="veh_passenger" depart="284.57" departLane="best" departSpeed="max" from="39275723#0" to="45090429#4"/>
    <trip id="veh234" type="veh_passenger" depart="285.80" departLane="best" from="132400917#3" to="37051973#1"/>
    <trip id="veh235" type="veh_passenger" depart="287.02" departLane="best" from="-132400906#1" to="294443279#1"/>
    <trip id="veh236" type="veh_passenger" depart="288.24" departLane="best" from="-987561408#1" to="17218700#1"/>
    <trip id="veh237" type="veh_passenger" depart="289.46" departLane="best" from="-37052092#1" to="37347819"/>
    <trip id="veh238" type="veh_passenger" depart="290.68" departLane="best" from="658527063" to="132400906#1"/>
    <trip id="veh239" type="veh_passenger" depart="291.90" departLane="best" from="-132400953#1" to="1057713529#3"/>
    <trip id="veh240" type="veh_passenger" depart="293.12" departLane="best" from="294561112#2" to="132400922#1"/>
    <trip id="veh241" type="veh_passenger" depart="294.35" departLane="best" from="37114312#1" to="37634812#2"/>
    <trip id="veh242" type="veh_passenger" depart="295.57" departLane="best" departSpeed="max" from="-770925915#4" to="344099607#2"/>