<net xmlns:xsi="http://www.w3.org/2001/XMLSchema-instance" version="1.16" junctionCornerDetail="5" limitTurnSpeed="5.50" xsi:noNamespaceSchemaLocation="http://sumo.dlr.de/xsd/net_file.xsd">

    <location netOffset="-672444.27,-4574477.95" convBoundary="0.00,0.00,1519.09,2113.01" origBoundary="-72.939814,41.303106,-72.921836,41.322274" projParameter="+proj=utm +zone=18 +ellps=WGS84 +datum=WGS84 +units=m +no_defs" />

    <type id="highway.cycleway" priority="1" numLanes="1" speed="5.56" allow="bicycle" oneway="0" width="2.00" />
    <type id="highway.footway" priority="1" numLanes="1" speed="2.78" allow="pedestrian" oneway="1" width="2.00" />
    <type id="highway.path" priority="1" numLanes="1" speed="5.56" allow="pedestrian bicycle" oneway="0" width="2.00" />
    <type id="highway.pedestrian" priority="1" numLanes="1" speed="2.78" allow="pedestrian" oneway="1" width="2.00" />
    <type id="highway.primary" priority="12" numLanes="2" speed="27.78" disallow="tram rail_urban rail rail_electric rail_fast ship" oneway="0" />
    <type id="highway.residential" priority="3" numLanes="1" speed="13.89" disallow="tram rail_urban rail rail_electric rail_fast ship" oneway="0" />
    <type id="highway.secondary" priority="11" numLanes="1" speed="27.78" disallow="tram rail_urban rail rail_electric rail_fast ship" oneway="0" />
    <type id="highway.service" priority="1" numLanes="1" speed="5.56" allow="pedestrian delivery bicycle" oneway="0" />
    <type id="highway.steps" priority="1" numLanes="1" speed="1.39" allow="pedestrian" oneway="1" width="2.00" />
    <type id="highway.tertiary" priority="10" numLanes="1" speed="22.22" disallow="tram rail_urban rail rail_electric rail_fast ship" oneway="0" />
    <type id="highway.trunk" priority="13" numLanes="2" speed="27.78" disallow="pedestrian bicycle tram rail_urban rail rail_electric rail_fast ship" oneway="0" />

    <edge id=":10002695785_0" function="internal">
        <lane id=":10002695785_0_0" index="0" disallow="tram rail_urban rail rail_electric rail_fast ship" speed="27.78" length="7.49" shape="682.38,1023.03 677.81,1028.97" />
        <lane id=":10002695785_0_1" index="1" disallow="tram rail_urban rail rail_electric rail_fast ship" speed="27.78" length="7.49" shape="679.84,1021.08 675.27,1027.03" />
    </edge>
    <edge id=":10002695785_2" function="internal">
        <lane id=":10002695785_2_0" index="0" allow="pedestrian delivery bicycle" speed="8.83" length="7.16" shape="675.86,1020.03 676.10,1022.44 676.09,1024.41 675.81,1025.93 675.27,1027.03" />
    </edge>
    <edge id=":10002695788_0" function="internal">
        <lane id=":10002695788_0_0" index="0" allow="pedestrian delivery bicycle" speed="5.56" length="6.47" shape="675.37,1008.40 674.98,1009.28 674.80,1010.63 674.84,1012.46 675.10,1014.76" />
    </edge>
    <edge id=":10002695788_1" function="internal">
        <lane id=":10002695788_1_0" index="0" allow="pedestrian delivery bicycle" speed="5.56" length="6.99" shape="675.37,1008.40 671.09,1013.92" />
    </edge>
    <edge id=":10289445557_0" function="internal">
        <lane id=":10289445557_0_0" index="0" allow="pedestrian delivery bicycle" speed="5.56" length="9.41" shape="538.05,475.43 529.74,479.84" />
    </edge>
    <edge id=":10289445557_1" function="internal">
        <lane id=":10289445557_1_0" index="0" allow="pedestrian delivery bicycle" speed="5.56" length="10.47" shape="538.05,475.43 535.33,476.41 532.99,476.25 531.04,474.95 529.48,472.51" />
    </edge>
    <edge id=":10289445557_2" function="internal">
        <lane id=":10289445557_2_0" index="0" allow="pedestrian delivery bicycle" speed="3.65" length="4.67" shape="538.05,475.43 536.62,475.29 535.89,474.77 535.87,473.87 536.55,472.60" />
    </edge>
    <edge id=":10289445557_3" function="internal">
        <lane id=":10289445557_3_0" index="0" allow="pedestrian delivery bicycle" speed="4.98" length="5.07" shape="532.40,471.19 533.15,472.37 534.10,473.00 535.23,473.08 536.55,472.60" />
    </edge>
    <edge id=":10289445557_4" function="internal">
        <lane id=":10289445557_4_0" index="0" allow="pedestrian delivery bicycle" speed="5.56" length="10.19" shape="532.40,471.19 533.23,473.92 533.06,476.27 531.90,478.24 529.74,479.84" />
    </edge>
    <edge id=":10289445557_5" function="internal">
        <lane id=":10289445557_5_0" index="0" allow="pedestrian delivery bicycle" speed="3.65" length="4.67" shape="532.40,471.19 532.17,472.61 531.60,473.31 530.71,473.28 529.48,472.51" />
    </edge>
    <edge id=":10289445557_6" function="internal">
        <lane id=":10289445557_6_0" index="0" allow="pedestrian delivery bicycle" speed="5.25" length="5.25" shape="528.24,477.02 529.31,476.21 529.88,475.19 529.93,473.96 529.48,472.51" />
    </edge>
    <edge id=":10289445557_7" function="internal">
        <lane id=":10289445557_7_0" index="0" allow="pedestrian delivery bicycle" speed="5.56" length="9.41" shape="528.24,477.02 536.55,472.60" />
    </edge>
    <edge id=":10289445557_8" function="internal">
        <lane id=":10289445557_8_0" index="0" allow="pedestrian delivery bicycle" speed="3.65" length="4.67" shape="528.24,477.02 529.67,477.16 530.40,477.68 530.42,478.57 529.74,479.84" />
    </edge>
    <edge id=":10289445558_0" function="internal">
        <lane id=":10289445558_0_0" index="0" allow="pedestrian delivery bicycle" speed="5.56" length="5.04" shape="491.94,394.91 489.60,390.45" />
    </edge>
    <edge id=":10289445558_1" function="internal">
        <lane id=":10289445558_1_0" index="0" allow="pedestrian delivery bicycle" speed="3.65" length="1.44" shape="491.94,394.91 492.11,393.48" />
    </edge>
    <edge id=":10289445558_4" function="internal">
        <lane id=":10289445558_4_0" index="0" allow="pedestrian delivery bicycle" speed="3.65" length="3.23" shape="492.11,393.48 492.64,392.76 493.53,392.75 494.79,393.46" />
    </edge>
    <edge id=":10289445558_2" function="internal">
        <lane id=":10289445558_2_0" index="0" allow="pedestrian delivery bicycle" speed="5.56" length="5.01" shape="492.46,389.02 494.79,393.46" />
    </edge>
    <edge id=":10289445558_3" function="internal">
        <lane id=":10289445558_3_0" index="0" allow="pedestrian delivery bicycle" speed="3.65" length="1.44" shape="492.46,389.02 492.28,390.45" />
    </edge>
    <edge id=":10289445558_5" function="internal">
        <lane id=":10289445558_5_0" index="0" allow="pedestrian delivery bicycle" speed="3.65" length="3.23" shape="492.28,390.45 491.75,391.17 490.85,391.17 489.60,390.45" />
    </edge>
    <edge id=":10289445559_0" function="internal">
        <lane id=":10289445559_0_0" index="0" allow="pedestrian delivery bicycle" speed="5.25" length="5.54" shape="489.55,390.36 489.13,389.08 489.32,387.91 490.11,386.85 491.51,385.89" />
    </edge>
    <edge id=":10289445559_1" function="internal">
        <lane id=":10289445559_1_0" index="0" allow="pedestrian delivery bicycle" speed="3.65" length="4.68" shape="489.55,390.36 489.73,388.93 490.27,388.21 491.16,388.21 492.41,388.93" />
    </edge>
    <edge id=":10289445559_2" function="internal">
        <lane id=":10289445559_2_0" index="0" disallow="tram rail_urban rail rail_electric rail_fast ship" speed="27.78" length="6.93" shape="483.88,386.33 490.00,383.07" />
        <lane id=":10289445559_2_1" index="1" disallow="tram rail_urban rail rail_electric rail_fast ship" speed="27.78" length="6.93" shape="485.39,389.15 491.51,385.89" />
    </edge>
    <edge id=":10289445559_4" function="internal">
        <lane id=":10289445559_4_0" index="0" allow="pedestrian delivery bicycle" speed="6.09" length="7.76" shape="485.39,389.15 487.91,388.03 489.92,387.62 491.42,387.92 492.41,388.93" />
    </edge>
    <edge id=":10303200751_0" function="internal">
        <lane id=":10303200751_0_0" index="0" allow="pedestrian delivery bicycle" speed="3.65" length="4.67" shape="1273.99,1065.16 1272.62,1064.71 1272.02,1064.05 1272.19,1063.17 1273.13,1062.08" />
    </edge>
    <edge id=":10303200752_0" function="internal">
        <lane id=":10303200752_0_0" index="0" disallow="tram rail_urban rail rail_electric rail_fast ship" speed="13.89" length="9.40" shape="1326.30,1044.08 1328.70,1053.17" />
    </edge>
    <edge id=":10303200752_1" function="internal">
        <lane id=":10303200752_1_0" index="0" allow="pedestrian delivery bicycle" speed="6.12" length="7.78" shape="1326.30,1044.08 1326.81,1046.79 1326.75,1048.84 1326.11,1050.24 1324.89,1050.99" />
    </edge>
    <edge id=":10303200752_2" function="internal">
        <lane id=":10303200752_2_0" index="0" allow="pedestrian delivery bicycle" speed="6.07" length="7.79" shape="1324.04,1047.90 1325.47,1047.91 1326.73,1048.80 1327.80,1050.55 1328.70,1053.17" />
    </edge>
    <edge id=":10303200752_3" function="internal">
        <lane id=":10303200752_3_0" index="0" allow="pedestrian delivery bicycle" speed="3.65" length="4.67" shape="1324.04,1047.90 1325.41,1048.35 1326.01,1049.02 1325.84,1049.89 1324.89,1050.99" />
    </edge>
    <edge id=":10303200771_0" function="internal">
        <lane id=":10303200771_0_0" index="0" disallow="tram rail_urban rail rail_electric rail_fast ship" speed="13.89" length="9.40" shape="1310.40,983.72 1312.79,992.81" />
    </edge>
    <edge id=":10303200771_1" function="internal">
        <lane id=":10303200771_1_0" index="0" allow="pedestrian delivery bicycle" speed="6.09" length="7.76" shape="1310.40,983.72 1310.91,986.43 1310.85,988.48 1310.21,989.87 1309.00,990.61" />
    </edge>
    <edge id=":10303200771_2" function="internal">
        <lane id=":10303200771_2_0" index="0" allow="pedestrian delivery bicycle" speed="6.08" length="7.77" shape="1308.17,987.51 1309.59,987.54 1310.83,988.43 1311.90,990.19 1312.79,992.81" />
    </edge>
    <edge id=":10303200771_3" function="internal">
        <lane id=":10303200771_3_0" index="0" allow="pedestrian delivery bicycle" speed="3.65" length="4.67" shape="1308.17,987.51 1309.54,987.98 1310.13,988.65 1309.95,989.52 1309.00,990.61" />
    </edge>
    <edge id=":10303200772_0" function="internal">
        <lane id=":10303200772_0_0" index="0" allow="pedestrian delivery bicycle" speed="5.56" length="5.14" shape="1317.95,1052.92 1313.00,1054.30" />
    </edge>
    <edge id=":10303200772_1" function="internal">
        <lane id=":10303200772_1_0" index="0" allow="pedestrian delivery bicycle" speed="3.65" length="1.44" shape="1317.95,1052.92 1316.58,1052.47" />
    </edge>
    <edge id=":10303200772_4" function="internal">
        <lane id=":10303200772_4_0" index="0" allow="pedestrian delivery bicycle" speed="3.65" length="3.23" shape="1316.58,1052.47 1315.98,1051.81 1316.15,1050.93 1317.09,1049.84" />
    </edge>
    <edge id=":10303200772_2" function="internal">
        <lane id=":10303200772_2_0" index="0" allow="pedestrian delivery bicycle" speed="5.56" length="5.14" shape="1312.14,1051.21 1317.09,1049.84" />
    </edge>
    <edge id=":10303200772_3" function="internal">
        <lane id=":10303200772_3_0" index="0" allow="pedestrian delivery bicycle" speed="3.65" length="1.44" shape="1312.14,1051.21 1313.51,1051.66" />
    </edge>
    <edge id=":10303200772_5" function="internal">
        <lane id=":10303200772_5_0" index="0" allow="pedestrian delivery bicycle" speed="3.65" length="3.23" shape="1313.51,1051.66 1314.11,1052.33 1313.94,1053.20 1313.00,1054.30" />
    </edge>
    <edge id=":10705536787_0" function="internal">
        <lane id=":10705536787_0_0" index="0" allow="pedestrian delivery bicycle" speed="5.56" length="5.00" shape="711.09,518.22 706.18,517.30" />
    </edge>
    <edge id=":10705536787_1" function="internal">
        <lane id=":10705536787_1_0" index="0" allow="pedestrian delivery bicycle" speed="3.65" length="1.44" shape="711.09,518.22 710.06,517.21" />
    </edge>
    <edge id=":10705536787_4" function="internal">
        <lane id=":10705536787_4_0" index="0" allow="pedestrian delivery bicycle" speed="3.65" length="3.23" shape="710.06,517.21 709.81,516.35 710.35,515.64 711.68,515.08" />
    </edge>
    <edge id=":10705536787_2" function="internal">
        <lane id=":10705536787_2_0" index="0" allow="pedestrian delivery bicycle" speed="5.56" length="5.00" shape="706.77,514.15 711.68,515.08" />
    </edge>
    <edge id=":10705536787_3" function="internal">
        <lane id=":10705536787_3_0" index="0" allow="pedestrian delivery bicycle" speed="3.65" length="1.44" shape="706.77,514.15 707.80,515.16" />
    </edge>
    <edge id=":10705536787_5" function="internal">
        <lane id=":10705536787_5_0" index="0" allow="pedestrian delivery bicycle" speed="3.65" length="3.23" shape="707.80,515.16 708.05,516.02 707.50,516.73 706.18,517.30" />
    </edge>
    <edge id=":10825692783_0" function="internal">
        <lane id=":10825692783_0_0" index="0" allow="pedestrian delivery bicycle" speed="4.99" length="5.06" shape="666.43,1181.81 665.19,1181.17 664.06,1181.10 663.04,1181.59 662.12,1182.65" />
    </edge>
    <edge id=":10825692783_1" function="internal">
        <lane id=":10825692783_1_0" index="0" allow="pedestrian delivery bicycle" speed="5.56" length="5.74" shape="666.43,1181.81 661.70,1178.55" />
    </edge>
    <edge id=":10825692783_2" function="internal">
        <lane id=":10825692783_2_0" index="0" allow="pedestrian delivery bicycle" speed="3.65" length="4.67" shape="666.43,1181.81 665.91,1180.46 666.05,1179.58 666.84,1179.15 668.28,1179.20" />
    </edge>
    <edge id=":10825692783_3" function="internal">
        <lane id=":10825692783_3_0" index="0" allow="pedestrian delivery bicycle" speed="5.17" length="5.20" shape="667.31,1174.71 666.72,1175.96 666.69,1177.12 667.21,1178.20 668.28,1179.20" />
    </edge>
    <edge id=":10825692783_4" function="internal">
        <lane id=":10825692783_4_0" index="0" allow="pedestrian delivery bicycle" speed="5.56" length="9.48" shape="667.31,1174.71 662.12,1182.65" />
    </edge>
    <edge id=":10825692783_5" function="internal">
        <lane id=":10825692783_5_0" index="0" allow="pedestrian delivery bicycle" speed="5.56" length="7.38" shape="667.31,1174.71 665.65,1176.92 664.16,1178.29 662.84,1178.83 661.70,1178.55" />
    </edge>
    <edge id=":10825692783_6" function="internal">
        <lane id=":10825692783_6_0" index="0" allow="pedestrian delivery bicycle" speed="5.56" length="6.21" shape="663.16,1175.68 668.28,1179.20" />
    </edge>
    <edge id=":10825692783_7" function="internal">
        <lane id=":10825692783_7_0" index="0" allow="pedestrian delivery bicycle" speed="5.56" length="7.71" shape="663.16,1175.68 664.00,1176.71 664.10,1178.22 663.48,1180.19 662.12,1182.65" />
    </edge>
    <edge id=":10825692783_8" function="internal">
        <lane id=":10825692783_8_0" index="0" allow="pedestrian delivery bicycle" speed="3.66" length="4.70" shape="663.16,1175.68 663.88,1176.94 663.87,1177.84 663.14,1178.38 661.70,1178.55" />
    </edge>
    <edge id=":10825692784_0" function="internal">
        <lane id=":10825692784_0_0" index="0" allow="pedestrian delivery bicycle" speed="5.13" length="5.05" shape="659.78,1191.77 658.56,1191.17 657.42,1191.10 656.36,1191.56 655.38,1192.55" />
    </edge>
    <edge id=":10825692784_1" function="internal">
        <lane id=":10825692784_1_0" index="0" allow="pedestrian delivery bicycle" speed="5.56" length="6.12" shape="659.78,1191.77 654.76,1188.26" />
    </edge>
    <edge id=":10825692784_2" function="internal">
        <lane id=":10825692784_2_0" index="0" allow="pedestrian delivery bicycle" speed="3.65" length="4.67" shape="659.78,1191.77 659.25,1190.43 659.37,1189.54 660.15,1189.11 661.59,1189.13" />
    </edge>
    <edge id=":10825692784_3" function="internal">
        <lane id=":10825692784_3_0" index="0" allow="pedestrian delivery bicycle" speed="5.12" length="5.07" shape="660.79,1184.72 660.20,1186.00 660.14,1187.16 660.60,1188.21 661.59,1189.13" />
    </edge>
    <edge id=":10825692784_4" function="internal">
        <lane id=":10825692784_4_0" index="0" allow="pedestrian delivery bicycle" speed="5.56" length="9.52" shape="660.79,1184.72 655.38,1192.55" />
    </edge>
    <edge id=":10825692784_5" function="internal">
        <lane id=":10825692784_5_0" index="0" allow="pedestrian delivery bicycle" speed="5.56" length="7.79" shape="660.79,1184.72 659.13,1186.96 657.57,1188.30 656.11,1188.73 654.76,1188.26" />
    </edge>
    <edge id=":10825692784_6" function="internal">
        <lane id=":10825692784_6_0" index="0" allow="pedestrian delivery bicycle" speed="5.56" length="5.77" shape="656.86,1185.83 661.59,1189.13" />
    </edge>
    <edge id=":10825692784_7" function="internal">
        <lane id=":10825692784_7_0" index="0" allow="pedestrian delivery bicycle" speed="5.56" length="7.57" shape="656.86,1185.83 657.64,1186.86 657.65,1188.33 656.90,1190.22 655.38,1192.55" />
    </edge>
    <edge id=":10825692784_8" function="internal">
        <lane id=":10825692784_8_0" index="0" allow="pedestrian delivery bicycle" speed="3.66" length="4.69" shape="656.86,1185.83 657.25,1187.22 657.03,1188.09 656.20,1188.44 654.76,1188.26" />
    </edge>
    <edge id=":10825692787_0" function="internal">
        <lane id=":10825692787_0_0" index="0" allow="pedestrian delivery bicycle" speed="5.56" length="6.53" shape="703.66,1120.80 699.99,1126.20" />
    </edge>
    <edge id=":10825692789_0" function="internal">
        <lane id=":10825692789_0_0" index="0" allow="pedestrian delivery bicycle" speed="3.65" length="4.67" shape="739.81,1240.53 740.32,1241.89 740.17,1242.77 739.38,1243.18 737.94,1243.13" />
    </edge>
    <edge id=":1544856200_0" function="internal">
        <lane id=":1544856200_0_0" index="0" allow="pedestrian delivery bicycle" speed="5.56" length="8.10" shape="514.35,439.23 510.78,431.95" />
    </edge>
    <edge id=":1544856200_1" function="internal">
        <lane id=":1544856200_1_0" index="0" allow="pedestrian delivery bicycle" speed="3.65" length="1.44" shape="514.35,439.23 514.58,437.80" />
    </edge>
    <edge id=":1544856200_4" function="internal">
        <lane id=":1544856200_4_0" index="0" allow="pedestrian delivery bicycle" speed="3.65" length="3.23" shape="514.58,437.80 515.15,437.11 516.04,437.14 517.26,437.90" />
    </edge>
    <edge id=":1544856200_2" function="internal">
        <lane id=":1544856200_2_0" index="0" allow="pedestrian delivery bicycle" speed="5.56" length="8.24" shape="513.63,430.50 517.26,437.90" />
    </edge>
    <edge id=":1544856200_3" function="internal">
        <lane id=":1544856200_3_0" index="0" allow="pedestrian delivery bicycle" speed="3.65" length="1.44" shape="513.63,430.50 513.46,431.93" />
    </edge>
    <edge id=":1544856200_5" function="internal">
        <lane id=":1544856200_5_0" index="0" allow="pedestrian delivery bicycle" speed="3.65" length="3.23" shape="513.46,431.93 512.93,432.65 512.04,432.66 510.78,431.95" />
    </edge>
    <edge id=":1545252841_0" function="internal">
        <lane id=":1545252841_0_0" index="0" allow="pedestrian delivery bicycle" speed="3.65" length="4.67" shape="869.77,184.13 869.91,182.69 870.43,181.96 871.32,181.94 872.59,182.62" />
    </edge>
    <edge id=":1545252918_0" function="internal">
        <lane id=":1545252918_0_0" index="0" allow="pedestrian delivery bicycle" speed="3.65" length="4.67" shape="653.69,655.48 655.07,655.90 655.68,656.55 655.53,657.43 654.61,658.54" />
    </edge>
    <edge id=":1545279438_0" function="internal">
        <lane id=":1545279438_0_0" index="0" allow="pedestrian delivery bicycle" speed="4.77" length="5.43" shape="1046.97,1067.61 1046.49,1066.12 1045.68,1065.30 1044.54,1065.15 1043.07,1065.68" />
    </edge>
    <edge id=":1545279438_1" function="internal">
        <lane id=":1545279438_1_0" index="0" allow="pedestrian delivery bicycle" speed="5.56" length="10.55" shape="1046.97,1067.61 1046.72,1064.41 1047.18,1061.79 1048.33,1059.76 1050.18,1058.31" />
    </edge>
    <edge id=":1545279438_2" function="internal">
        <lane id=":1545279438_2_0" index="0" allow="pedestrian delivery bicycle" speed="3.65" length="4.67" shape="1046.97,1067.61 1047.56,1066.29 1048.28,1065.76 1049.13,1066.02 1050.12,1067.07" />
    </edge>
    <edge id=":1545279438_3" function="internal">
        <lane id=":1545279438_3_0" index="0" allow="pedestrian delivery bicycle" speed="5.56" length="6.53" shape="1051.67,1061.14 1050.70,1061.97 1050.11,1063.24 1049.92,1064.94 1050.12,1067.07" />
    </edge>
    <edge id=":1545279438_4" function="internal">
        <lane id=":1545279438_4_0" index="0" allow="pedestrian delivery bicycle" speed="5.56" length="9.74" shape="1051.67,1061.14 1043.07,1065.68" />
    </edge>
    <edge id=":1545279438_5" function="internal">
        <lane id=":1545279438_5_0" index="0" allow="pedestrian delivery bicycle" speed="3.65" length="4.67" shape="1051.67,1061.14 1050.24,1060.99 1049.51,1060.47 1049.49,1059.57 1050.18,1058.31" />
    </edge>
    <edge id=":1545279438_6" function="internal">
        <lane id=":1545279438_6_0" index="0" allow="pedestrian delivery bicycle" speed="5.56" length="9.73" shape="1041.57,1062.85 1050.18,1058.31" />
    </edge>
    <edge id=":1545279438_7" function="internal">
        <lane id=":1545279438_7_0" index="0" allow="pedestrian delivery bicycle" speed="5.56" length="11.90" shape="1041.57,1062.85 1044.80,1061.69 1047.30,1062.01 1049.08,1063.80 1050.12,1067.07" />
    </edge>
    <edge id=":1545279438_8" function="internal">
        <lane id=":1545279438_8_0" index="0" allow="pedestrian delivery bicycle" speed="3.65" length="4.67" shape="1041.57,1062.85 1043.01,1063.00 1043.73,1063.52 1043.75,1064.41 1043.07,1065.68" />
    </edge>
    <edge id=":1545279451_0" function="internal">
        <lane id=":1545279451_0_0" index="0" allow="pedestrian delivery bicycle" speed="5.56" length="7.28" shape="947.67,1252.56 947.63,1250.59 948.21,1249.03 949.42,1247.88 951.25,1247.14" />
    </edge>
    <edge id=":1545279451_1" function="internal">
        <lane id=":1545279451_1_0" index="0" allow="pedestrian delivery bicycle" speed="3.91" length="2.43" shape="952.02,1250.25 951.41,1250.49 951.01,1250.88 950.81,1251.40 950.82,1252.06" />
    </edge>
    <edge id=":1545279458_0" function="internal">
        <lane id=":1545279458_0_0" index="0" allow="pedestrian delivery bicycle" speed="4.10" length="1.45" shape="978.03,1097.13 977.71,1097.33 977.46,1097.57 977.27,1097.87 977.15,1098.22" />
    </edge>
    <edge id=":1545279458_1" function="internal">
        <lane id=":1545279458_1_0" index="0" allow="pedestrian delivery bicycle" speed="5.56" length="4.34" shape="974.03,1097.49 974.40,1096.44 974.96,1095.54 975.72,1094.81 976.67,1094.23" />
    </edge>
    <edge id=":1545279465_0" function="internal">
        <lane id=":1545279465_0_0" index="0" allow="pedestrian delivery bicycle" speed="4.99" length="5.06" shape="957.55,1312.49 957.07,1311.18 956.28,1310.36 955.20,1310.03 953.81,1310.19" />
    </edge>
    <edge id=":1545279465_1" function="internal">
        <lane id=":1545279465_1_0" index="0" allow="pedestrian delivery bicycle" speed="5.56" length="9.33" shape="957.55,1312.49 955.82,1303.32" />
    </edge>
    <edge id=":1545279465_2" function="internal">
        <lane id=":1545279465_2_0" index="0" allow="pedestrian delivery bicycle" speed="3.65" length="4.67" shape="957.55,1312.49 958.08,1311.15 958.78,1310.59 959.64,1310.81 960.68,1311.82" />
    </edge>
    <edge id=":1545279465_3" function="internal">
        <lane id=":1545279465_3_0" index="0" allow="pedestrian delivery bicycle" speed="5.56" length="9.17" shape="958.98,1302.81 960.68,1311.82" />
    </edge>
    <edge id=":1545279465_4" function="internal">
        <lane id=":1545279465_4_0" index="0" allow="pedestrian delivery bicycle" speed="5.56" length="10.06" shape="958.98,1302.81 959.00,1305.44 958.15,1307.54 956.42,1309.13 953.81,1310.19" />
    </edge>
    <edge id=":1545279465_5" function="internal">
        <lane id=":1545279465_5_0" index="0" allow="pedestrian delivery bicycle" speed="3.65" length="4.67" shape="958.98,1302.81 958.38,1304.12 957.65,1304.64 956.80,1304.37 955.82,1303.32" />
    </edge>
    <edge id=":1545279465_6" function="internal">
        <lane id=":1545279465_6_0" index="0" allow="pedestrian delivery bicycle" speed="5.32" length="5.26" shape="953.00,1307.10 954.41,1306.53 955.35,1305.72 955.82,1304.64 955.82,1303.32" />
    </edge>
    <edge id=":1545279465_7" function="internal">
        <lane id=":1545279465_7_0" index="0" allow="pedestrian delivery bicycle" speed="5.56" length="10.39" shape="953.00,1307.10 955.84,1306.77 958.07,1307.44 959.68,1309.13 960.68,1311.82" />
    </edge>
    <edge id=":1545279465_8" function="internal">
        <lane id=":1545279465_8_0" index="0" allow="pedestrian delivery bicycle" speed="3.65" length="4.67" shape="953.00,1307.10 954.36,1307.56 954.95,1308.24 954.77,1309.11 953.81,1310.19" />
    </edge>
    <edge id=":1545279472_0" function="internal">
        <lane id=":1545279472_0_0" index="0" allow="pedestrian delivery bicycle" speed="4.97" length="5.08" shape="997.18,1242.15 996.73,1240.82 995.96,1239.98 994.88,1239.64 993.48,1239.79" />
    </edge>
    <edge id=":1545279472_1" function="internal">
        <lane id=":1545279472_1_0" index="0" allow="pedestrian delivery bicycle" speed="5.56" length="9.84" shape="997.18,1242.15 995.42,1232.47" />
    </edge>
    <edge id=":1545279472_2" function="internal">
        <lane id=":1545279472_2_0" index="0" allow="pedestrian delivery bicycle" speed="5.56" length="10.53" shape="997.18,1242.15 997.06,1239.29 997.86,1237.02 999.59,1235.36 1002.25,1234.31" />
    </edge>
    <edge id=":1545279472_3" function="internal">
        <lane id=":1545279472_3_0" index="0" allow="pedestrian delivery bicycle" speed="3.65" length="4.67" shape="997.18,1242.15 997.75,1240.83 998.46,1240.29 999.32,1240.54 1000.32,1241.58" />
    </edge>
    <edge id=":1545279472_4" function="internal">
        <lane id=":1545279472_4_0" index="0" allow="pedestrian delivery bicycle" speed="5.37" length="5.57" shape="1003.00,1237.42 1001.60,1237.98 1000.68,1238.86 1000.26,1240.06 1000.32,1241.58" />
    </edge>
    <edge id=":1545279472_5" function="internal">
        <lane id=":1545279472_5_0" index="0" allow="pedestrian delivery bicycle" speed="5.56" length="9.81" shape="1003.00,1237.42 993.48,1239.79" />
    </edge>
    <edge id=":1545279472_6" function="internal">
        <lane id=":1545279472_6_0" index="0" allow="pedestrian delivery bicycle" speed="5.56" length="10.46" shape="1003.00,1237.42 1000.12,1237.69 997.90,1236.96 996.33,1235.22 995.42,1232.47" />
    </edge>
    <edge id=":1545279472_7" function="internal">
        <lane id=":1545279472_7_0" index="0" allow="pedestrian delivery bicycle" speed="3.65" length="4.67" shape="1003.00,1237.42 1001.65,1236.92 1001.07,1236.24 1001.27,1235.37 1002.25,1234.31" />
    </edge>
    <edge id=":1545279472_8" function="internal">
        <lane id=":1545279472_8_0" index="0" allow="pedestrian delivery bicycle" speed="4.98" length="5.07" shape="998.57,1231.91 999.02,1233.24 999.77,1234.08 1000.85,1234.44 1002.25,1234.31" />
    </edge>
    <edge id=":1545279472_9" function="internal">
        <lane id=":1545279472_9_0" index="0" allow="pedestrian delivery bicycle" speed="5.56" length="9.82" shape="998.57,1231.91 1000.32,1241.58" />
    </edge>
    <edge id=":1545279472_10" function="internal">
        <lane id=":1545279472_10_0" index="0" allow="pedestrian delivery bicycle" speed="5.56" length="10.53" shape="998.57,1231.91 998.68,1234.76 997.86,1237.02 996.13,1238.70 993.48,1239.79" />
    </edge>
    <edge id=":1545279472_11" function="internal">
        <lane id=":1545279472_11_0" index="0" allow="pedestrian delivery bicycle" speed="3.65" length="4.67" shape="998.57,1231.91 998.00,1233.23 997.28,1233.77 996.42,1233.51 995.42,1232.47" />
    </edge>
    <edge id=":1545279472_12" function="internal">
        <lane id=":1545279472_12_0" index="0" allow="pedestrian delivery bicycle" speed="5.43" length="5.64" shape="992.69,1236.69 994.11,1236.10 995.04,1235.21 995.48,1234.00 995.42,1232.47" />
    </edge>
    <edge id=":1545279472_13" function="internal">
        <lane id=":1545279472_13_0" index="0" allow="pedestrian delivery bicycle" speed="5.56" length="9.85" shape="992.69,1236.69 1002.25,1234.31" />
    </edge>
    <edge id=":1545279472_14" function="internal">
        <lane id=":1545279472_14_0" index="0" allow="pedestrian delivery bicycle" speed="5.56" length="10.51" shape="992.69,1236.69 995.58,1236.38 997.82,1237.09 999.40,1238.82 1000.32,1241.58" />
    </edge>
    <edge id=":1545279472_15" function="internal">
        <lane id=":1545279472_15_0" index="0" allow="pedestrian delivery bicycle" speed="3.65" length="4.67" shape="992.69,1236.69 994.05,1237.17 994.63,1237.84 994.45,1238.72 993.48,1239.79" />
    </edge>
    <edge id=":1545279478_0" function="internal">
        <lane id=":1545279478_0_0" index="0" allow="pedestrian delivery bicycle" speed="5.56" length="10.83" shape="1109.09,1288.64 1101.46,1296.32" />
    </edge>
    <edge id=":1545279478_1" function="internal">
        <lane id=":1545279478_1_0" index="0" allow="pedestrian delivery bicycle" speed="5.56" length="14.20" shape="1109.09,1288.64 1105.66,1291.32 1102.94,1291.71 1100.93,1289.83 1099.64,1285.68" />
    </edge>
    <edge id=":1545279478_2" function="internal">
        <lane id=":1545279478_2_0" index="0" allow="pedestrian delivery bicycle" speed="3.65" length="4.67" shape="1109.09,1288.64 1107.68,1288.93 1106.83,1288.65 1106.54,1287.80 1106.82,1286.39" />
    </edge>
    <edge id=":1545279478_3" function="internal">
        <lane id=":1545279478_3_0" index="0" allow="pedestrian delivery bicycle" speed="4.66" length="6.05" shape="1102.79,1285.12 1103.34,1286.89 1104.20,1287.70 1105.36,1287.53 1106.82,1286.39" />
    </edge>
    <edge id=":1545279478_4" function="internal">